! Blank file in which we can put "overrides" for parameters
REENTRANT_Y = False
