! Blank file in which we can put "overrides" for parameters
MIN_THICKNESS = 1.E-4
MASS_WEIGHT_IN_PRESSURE_GRADIENT = True
